
This summary information was generated by ElastoDyn on 20-Feb-2023 at 11:20:53.


Turbine features:

            Upwind, 3-bladed rotor with rigid hub.
            The model has 10 of 24 DOFs active (enabled) at start-up.
 Enabled    Platform horizontal surge translation DOF 
 Enabled    Platform horizontal sway translation DOF 
 Enabled    Platform vertical heave translation DOF 
 Enabled    Platform roll tilt rotation DOF 
 Enabled    Platform pitch tilt rotation DOF 
 Enabled    Platform yaw rotation DOF 
 Enabled    1st tower fore-aft bending mode DOF 
 Enabled    1st tower side-to-side bending mode DOF 
 Enabled    2nd tower fore-aft bending mode DOF 
 Enabled    2nd tower side-to-side bending mode DOF 
 Disabled   Nacelle yaw DOF 
 Disabled   Rotor-furl DOF 
 Disabled   Variable speed generator DOF 
 Disabled   Drivetrain rotational-flexibility DOF 
 Disabled   Tail-furl DOF 
 Disabled   1st flapwise bending-mode DOF of blade 1 
 Disabled   1st edgewise bending-mode DOF of blade 1 
 Disabled   2nd flapwise bending-mode DOF of blade 1 
 Disabled   1st flapwise bending-mode DOF of blade 2 
 Disabled   1st edgewise bending-mode DOF of blade 2 
 Disabled   2nd flapwise bending-mode DOF of blade 2 
 Disabled   1st flapwise bending-mode DOF of blade 3 
 Disabled   1st edgewise bending-mode DOF of blade 3 
 Disabled   2nd flapwise bending-mode DOF of blade 3 


Time steps:

    Structural            (s)        0.00500000


Some calculated parameters:

    Hub-Height            (m)            90.550
    Flexible Tower Length (m)            72.000
    Flexible Blade Length (m)            61.500


Rotor mass properties:

    Rotor Mass            (kg)       109389.842
    Rotor Inertia         (kg-m^2) 38677040.613
                                        Blade 1      Blade 2      Blade 3
                                        -------      -------      -------
    Mass                  (kg)        17536.614    17536.614    17536.614
    Second Mass Moment    (kg-m^2) 11752352.265 11752352.265 11752352.265
    First Mass Moment     (kg-m)     362132.653   362132.653   362132.653
    Center of Mass        (m)            20.650       20.650       20.650


Additional mass properties:

    Tower-top Mass        (kg)       349389.842
    Tower Mass            (kg)       219988.224
    Platform Mass         (kg)       666000.000
    Mass Incl. Platform   (kg)      1235378.066


Interpolated tower properties:

Node  TwFract   HNodes  DHNodes  TMassDen    FAStiff    SSStiff
 (-)      (-)      (m)      (m)    (kg/m)     (Nm^2)     (Nm^2)
   1    0.025    1.800    3.600  4237.493  4.591E+11  4.591E+11
   2    0.075    5.400    3.600  4099.458  4.284E+11  4.284E+11
   3    0.125    9.000    3.600  3963.693  3.993E+11  3.993E+11
   4    0.175   12.600    3.600  3830.197  3.716E+11  3.716E+11
   5    0.225   16.200    3.600  3698.967  3.454E+11  3.454E+11
   6    0.275   19.800    3.600  3570.003  3.207E+11  3.207E+11
   7    0.325   23.400    3.600  3443.305  2.972E+11  2.972E+11
   8    0.375   27.000    3.600  3318.875  2.751E+11  2.751E+11
   9    0.425   30.600    3.600  3196.710  2.543E+11  2.543E+11
  10    0.475   34.200    3.600  3076.810  2.346E+11  2.346E+11
  11    0.525   37.800    3.600  2959.178  2.161E+11  2.161E+11
  12    0.575   41.400    3.600  2843.812  1.987E+11  1.987E+11
  13    0.625   45.000    3.600  2730.712  1.824E+11  1.824E+11
  14    0.675   48.600    3.600  2619.877  1.671E+11  1.671E+11
  15    0.725   52.200    3.600  2511.312  1.528E+11  1.528E+11
  16    0.775   55.800    3.600  2405.017  1.394E+11  1.394E+11
  17    0.825   59.400    3.600  2300.987  1.270E+11  1.270E+11
  18    0.875   63.000    3.600  2199.222  1.153E+11  1.153E+11
  19    0.925   66.600    3.600  2099.722  1.045E+11  1.045E+11
  20    0.975   70.200    3.600  2002.487  9.450E+10  9.450E+10


Interpolated blade 1 properties:

Node  BlFract   RNodes  DRNodes PitchAxis  StrcTwst  BMassDen    FlpStff    EdgStff
 (-)      (-)      (m)      (m)       (-)     (deg)    (kg/m)     (Nm^2)     (Nm^2)
   1    0.029    3.309    3.618     0.253    13.308   787.554  1.823E+10  1.952E+10
   2    0.088    6.926    3.618     0.294    13.308   464.487  7.021E+09  9.977E+09
   3    0.147   10.544    3.618     0.339    13.308   414.917  4.944E+09  6.990E+09
   4    0.206   14.162    3.618     0.375    12.545   412.664  3.178E+09  6.695E+09
   5    0.265   17.779    3.618     0.375    10.770   361.957  2.263E+09  4.796E+09
   6    0.324   21.397    3.618     0.375     9.757   346.452  1.862E+09  4.283E+09
   7    0.382   25.015    3.618     0.375     8.731   330.982  1.440E+09  3.835E+09
   8    0.441   28.632    3.618     0.375     7.647   304.395  9.968E+08  3.304E+09
   9    0.500   32.250    3.618     0.375     6.549   272.375  6.410E+08  2.685E+09
  10    0.559   35.868    3.618     0.375     5.498   250.787  4.010E+08  2.292E+09
  11    0.618   39.485    3.618     0.375     4.462   211.668  2.468E+08  1.610E+09
  12    0.676   43.103    3.618     0.375     3.482   177.049  1.409E+08  1.225E+09
  13    0.735   46.721    3.618     0.375     2.693   153.160  9.890E+07  9.067E+08
  14    0.794   50.338    3.618     0.375     1.993   128.005  7.145E+07  6.486E+08
  15    0.853   53.956    3.618     0.375     1.292   102.116  4.819E+07  4.472E+08
  16    0.912   57.574    3.618     0.375     0.598    77.547  3.095E+07  3.109E+08
  17    0.971   61.191    3.618     0.375     0.141    51.403  1.013E+07  1.019E+08


Interpolated blade 2 properties:

Node  BlFract   RNodes  DRNodes PitchAxis  StrcTwst  BMassDen    FlpStff    EdgStff
 (-)      (-)      (m)      (m)       (-)     (deg)    (kg/m)     (Nm^2)     (Nm^2)
   1    0.029    3.309    3.618     0.253    13.308   787.554  1.823E+10  1.952E+10
   2    0.088    6.926    3.618     0.294    13.308   464.487  7.021E+09  9.977E+09
   3    0.147   10.544    3.618     0.339    13.308   414.917  4.944E+09  6.990E+09
   4    0.206   14.162    3.618     0.375    12.545   412.664  3.178E+09  6.695E+09
   5    0.265   17.779    3.618     0.375    10.770   361.957  2.263E+09  4.796E+09
   6    0.324   21.397    3.618     0.375     9.757   346.452  1.862E+09  4.283E+09
   7    0.382   25.015    3.618     0.375     8.731   330.982  1.440E+09  3.835E+09
   8    0.441   28.632    3.618     0.375     7.647   304.395  9.968E+08  3.304E+09
   9    0.500   32.250    3.618     0.375     6.549   272.375  6.410E+08  2.685E+09
  10    0.559   35.868    3.618     0.375     5.498   250.787  4.010E+08  2.292E+09
  11    0.618   39.485    3.618     0.375     4.462   211.668  2.468E+08  1.610E+09
  12    0.676   43.103    3.618     0.375     3.482   177.049  1.409E+08  1.225E+09
  13    0.735   46.721    3.618     0.375     2.693   153.160  9.890E+07  9.067E+08
  14    0.794   50.338    3.618     0.375     1.993   128.005  7.145E+07  6.486E+08
  15    0.853   53.956    3.618     0.375     1.292   102.116  4.819E+07  4.472E+08
  16    0.912   57.574    3.618     0.375     0.598    77.547  3.095E+07  3.109E+08
  17    0.971   61.191    3.618     0.375     0.141    51.403  1.013E+07  1.019E+08


Interpolated blade 3 properties:

Node  BlFract   RNodes  DRNodes PitchAxis  StrcTwst  BMassDen    FlpStff    EdgStff
 (-)      (-)      (m)      (m)       (-)     (deg)    (kg/m)     (Nm^2)     (Nm^2)
   1    0.029    3.309    3.618     0.253    13.308   787.554  1.823E+10  1.952E+10
   2    0.088    6.926    3.618     0.294    13.308   464.487  7.021E+09  9.977E+09
   3    0.147   10.544    3.618     0.339    13.308   414.917  4.944E+09  6.990E+09
   4    0.206   14.162    3.618     0.375    12.545   412.664  3.178E+09  6.695E+09
   5    0.265   17.779    3.618     0.375    10.770   361.957  2.263E+09  4.796E+09
   6    0.324   21.397    3.618     0.375     9.757   346.452  1.862E+09  4.283E+09
   7    0.382   25.015    3.618     0.375     8.731   330.982  1.440E+09  3.835E+09
   8    0.441   28.632    3.618     0.375     7.647   304.395  9.968E+08  3.304E+09
   9    0.500   32.250    3.618     0.375     6.549   272.375  6.410E+08  2.685E+09
  10    0.559   35.868    3.618     0.375     5.498   250.787  4.010E+08  2.292E+09
  11    0.618   39.485    3.618     0.375     4.462   211.668  2.468E+08  1.610E+09
  12    0.676   43.103    3.618     0.375     3.482   177.049  1.409E+08  1.225E+09
  13    0.735   46.721    3.618     0.375     2.693   153.160  9.890E+07  9.067E+08
  14    0.794   50.338    3.618     0.375     1.993   128.005  7.145E+07  6.486E+08
  15    0.853   53.956    3.618     0.375     1.292   102.116  4.819E+07  4.472E+08
  16    0.912   57.574    3.618     0.375     0.598    77.547  3.095E+07  3.109E+08
  17    0.971   61.191    3.618     0.375     0.141    51.403  1.013E+07  1.019E+08


Requested Outputs:


 Col   Parameter            Units               
 ---   ---------------      ---------------     
   0   Time                 (s)                 
   1   TwHt1TPxi            (m)                 
   2   TwHt1TPyi            (m)                 
   3   TTDspTwst            (deg)               
   4   PtfmSurge            (m)                 
   5   PtfmSway             (m)                 
   6   PtfmRoll             (deg)               
   7   PtfmPitch            (deg)               


  Requested Output Channels at each blade station:
 Col   Parameter            Units               
 ---   ---------------      ---------------     
